-------------------------------------------------------
          Amber 20 PMEMD                              2020
          -------------------------------------------------------

  [-O]verwriting output

File Assignments:

 Here is the input file:

A NVT simulation for common production-level simulations
 &cntrl
    imin=0,        ! No minimization
    irest=0,       ! This is NOT a restart of an old MD simulation
    ntx=1,         ! So our inpcrd file has no velocities

    ! Temperature control
    ntt=3,         ! Langevin dynamics
    gamma_ln=1.0,  ! Friction coefficient (ps^-1)
    tempi=303.15,   ! Initial temp -- give it some small random velocities
    temp0=303.15,   ! Target temperature

    ! Potential energy control
    cut=12.0,      ! nonbonded cutoff, in Angstroms
    fswitch=10.0,  ! Force-based switching

    ! MD settings
    nstlim=500000, ! 500K steps, .55 ns total
    dt=0.001,      ! time step (ps)

    ! SHAKE
    ntc=2,         ! Constrain bonds containing hydrogen
    ntf=2,         ! Do not calculate forces of bonds containing hydrogen

    ! Control how often information is printed
    ntpr=1000,     ! Print energies every 1000 steps
    ntwx=10000,     ! Print coordinates every 10000 steps to the trajectory
    ntwr=50000,    ! Print a restart file every 10K steps (can be less frequent
!   ntwv=-1,       ! Uncomment to also print velocities to trajectory
!   ntwf=-1,       ! Uncomment to also print forces to trajectory
    ntxo=2,        ! Write NetCDF format
    ioutfm=1,      ! Write NetCDF format (always do this!)

    ! Wrap coordinates when printing them to the same unit cell
    iwrap=0,

    ! Restraint options
    ntr=1,         ! Positional restraints for proteins, sugars, and ligands

    ! Set water atom/residue names for SETTLE recognition
    watnam='TIP3',  ! Water residues are named WAT
    owtnm='OH2',     ! Water oxygens are named O
 /

 &ewald
    vdwmeth = 0,
 /
Protein posres
.5
RES 1 830
END
END

Note: ig = -1. Setting random seed to   210184 based on wallclock time in
      microseconds.

--------------------------------------------------------------------------------
   1.  RESOURCE   USE:
--------------------------------------------------------------------------------

 getting box info from netcdf restart file
 NATOM  =   22410 NTYPES =       6 NBONH =   14940 MBONA  =    6640
 NTHETH =   34860 MTHETA =    5810 NPHIH =   51460 MPHIA  =   17430
 NHPARM =       0 NPARM  =       0 NNB   =  117860 NRES   =     830
 NBONA  =    6640 NTHETA =    5810 NPHIA =   17430 NUMBND =       6
 NUMANG =      10 NPTRA  =      19 NATYP =       1 NPHB   =       0
 IFBOX  =       1 NMXRS  =      27 IFCAP =       0 NEXTRA =       0
 NCOPY  =       0

     BOX TYPE: RECTILINEAR

--------------------------------------------------------------------------------
   2.  CONTROL  DATA  FOR  THE  RUN
--------------------------------------------------------------------------------

General flags:
     imin    =       0, nmropt  =       0

Nature and format of input:
     ntx     =       1, irest   =       0, ntrx    =       1

Nature and format of output:
     ntxo    =       2, ntpr    =    1000, ntrx    =       1, ntwr    =   50000
     iwrap   =       0, ntwx    =   10000, ntwv    =       0, ntwe    =       0
     ioutfm  =       1, ntwprt  =       0, idecomp =       0, rbornstat=      0

Potential function:
     ntf     =       2, ntb     =       1, igb     =       0, nsnb    =      25
     ipol    =       0, gbsa    =       0, iesp    =       0
     dielc   =   1.00000, cut     =  12.00000, intdiel =   1.00000

Frozen or restrained atoms:
     ibelly  =       0, ntr     =       1
     restraint_wt =   0.00000

Molecular dynamics:
     nstlim  =    500000, nscm    =         0, nrespa  =         1
     t       =   0.00000, dt      =   0.00100, vlimit  =  -1.00000

Langevin dynamics temperature regulation:
     ig      =  210184
     temp0   = 303.15000, tempi   = 303.15000, gamma_ln=   1.00000

SHAKE:
     ntc     =       2, jfastw  =       0
     tol     =   0.00001

Ewald parameters:
     verbose =       0, ew_type =       0, nbflag  =       1, use_pme =       1
     vdwmeth =       0, eedmeth =       1, netfrc  =       1
     Box X =   90.000   Box Y =   90.000   Box Z =   90.000
     Alpha =   90.000   Beta  =   90.000   Gamma =   90.000
     NFFT1 =   96       NFFT2 =   96       NFFT3 =   96
     Cutoff=   12.000   Tol   =0.100E-04
     Ewald Coefficient =  0.22664
     Interpolation order =    4

    LOADING THE CONSTRAINED ATOMS AS GROUPS

   5.  REFERENCE ATOM COORDINATES

    ----- READING GROUP     1; TITLE:
 Protein posres

     GROUP    1 HAS HARMONIC CONSTRAINTS     0.50000
 GRP    1 RES    1 TO   830
      Number of atoms in this group  = 22410
    ----- END OF GROUP READ -----

--------------------------------------------------------------------------------
   3.  ATOMIC COORDINATES AND VELOCITIES
--------------------------------------------------------------------------------

 begin time read from input coords =   500.000 ps

 Number of triangulated 3-point waters found:        0

     Sum of charges from parm topology file =  -0.00000000
     Forcing neutrality...

--------------------------------------------------------------------------------
   4.  RESULTS
 NSTEP =        0   TIME(PS) =       0.000  TEMP(K) =   391.11  PRESS =     0.0
 Etot   =     37629.6607  EKtot   =     20320.1076  EPtot      =     17309.5530
 BOND   =      1639.0640  ANGLE   =      7853.7678  DIHED      =      4481.1983
 UB     =      2302.6920  IMP     =         0.0000  CMAP       =         0.0000
 1-4 NB =       329.6414  1-4 EEL =     -4517.7305  VDWAALS    =     -3048.6607
 EELEC  =      8269.5809  EHBOND  =         0.0000  RESTRAINT  =         0.0000
 ------------------------------------------------------------------------------

      A V E R A G E S   O V E R     500 S T E P S

 NSTEP =   500000   TIME(PS) =     500.000  TEMP(K) =   303.16  PRESS =     0.0
 Etot   =    103510.5806  EKtot   =     15750.8090  EPtot      =     87759.7716
 BOND   =      1650.9162  ANGLE   =      7992.4325  DIHED      =      4959.0240
 UB     =      2326.9976  IMP     =         0.0000  CMAP       =         0.0000
 1-4 NB =       357.3893  1-4 EEL =     -4865.7998  VDWAALS    =     -3095.4536
 EELEC  =      8411.4261  EHBOND  =         0.0000  RESTRAINT  =     70022.8394
 EAMBER (non-restraint)  =     17736.9323
 ------------------------------------------------------------------------------

      R M S  F L U C T U A T I O N S

 NSTEP =   500000   TIME(PS) =     500.000  TEMP(K) =     1.95  PRESS =     0.0
 Etot   =     40984.7712  EKtot   =       101.0695  EPtot      =     40985.3791
 BOND   =        28.6515  ANGLE   =        63.9793  DIHED      =        29.5533
 UB     =        20.3856  IMP     =         0.0000  CMAP       =         0.0000
 1-4 NB =        12.2098  1-4 EEL =        34.0595  VDWAALS    =        10.7698
 EELEC  =        24.7951  EHBOND  =         0.0000  RESTRAINT  =     40990.9539
 EAMBER (non-restraint)  =        -5.5748
 ------------------------------------------------------------------------------
