-------------------------------------------------------
          Amber 20 PMEMD                              2020
          -------------------------------------------------------

  [-O]verwriting output

File Assignments:

 Here is the input file:

A NVT simulation for common production-level simulations
 &cntrl
    imin=0,        ! No minimization
    irest=1,       ! This IS a restart of an old MD simulation
    ntx=5,         ! So our inpcrd file has velocities

    ! Temperature control
    ntt=3,         ! Langevin dynamics
    gamma_ln=1.0,  ! Friction coefficient (ps^-1)
    temp0=303.15,   ! Target temperature

    ! Potential energy control
    cut=12.0,      ! nonbonded cutoff, in Angstroms
    fswitch=10.0,  ! Force-based switching

    ! MD settings
    nstlim=1250000, ! 1250K steps, 1.25 ns total
    dt=0.001,      ! time step (ps)

    ! SHAKE
    ntc=2,         ! Constrain bonds containing hydrogen
    ntf=2,         ! Do not calculate forces of bonds containing hydrogen

    ! Control how often information is printed
    ntpr=1000,     ! Print energies every 1000 steps
    ntwx=10000,    ! Print coordinates every 10000 steps to the trajectory
    ntwr=10000,    ! Print a restart file every 10K steps (can be less frequent
!   ntwv=-1,       ! Uncomment to also print velocities to trajectory
!   ntwf=-1,       ! Uncomment to also print forces to trajectory
    ntxo=2,        ! Write NetCDF format
    ioutfm=1,      ! Write NetCDF format (always do this!)

    ! Wrap coordinates when printing them to the same unit cell
    iwrap=1,

    ! Restraint options
    !nmropt=1,      ! Dihedral restraints for sugars and lipids
    csurften=3,
    gamma_ten=0.0,
    ninterface=2,

    ntr=1,
    ! Constant pressure control
    barostat=2,  !MC barostat
    ntp=3,       !1=isotropic; 2=anisotropic, 3=semi-isotropic w/ surften
    pres0=1.0,   ! Target external pressure = 1.0 bar

    ! Set water atom/residue names for SETTLE recognition
    watnam='TIP3',  ! Water residues are named WAT
    owtnm='OH2',     ! Water oxygens are named O
 /

 &ewald
    vdwmeth = 0,
 /
Protein posres
1.0
RES 1 6757
END
END

Note: ig = -1. Setting random seed to   433161 based on wallclock time in
      microseconds.

--------------------------------------------------------------------------------
   1.  RESOURCE   USE:
--------------------------------------------------------------------------------

 getting box info from netcdf restart file
 NATOM  =   42617 NTYPES =      18 NBONH =   35093 MBONA  =    6659
 NTHETH =   34857 MTHETA =    5842 NPHIH =   51457 MPHIA  =   17473
 NHPARM =       0 NPARM  =       0 NNB   =  144861 NRES   =    7586
 NBONA  =    6659 NTHETA =    5842 NPHIA =   17473 NUMBND =      22
 NUMANG =      38 NPTRA  =      71 NATYP =       1 NPHB   =       0
 IFBOX  =       1 NMXRS  =      44 IFCAP =       0 NEXTRA =       0
 NCOPY  =       0

     BOX TYPE: RECTILINEAR

--------------------------------------------------------------------------------
   2.  CONTROL  DATA  FOR  THE  RUN
--------------------------------------------------------------------------------

General flags:
     imin    =       0, nmropt  =       0

Nature and format of input:
     ntx     =       5, irest   =       1, ntrx    =       1

Nature and format of output:
     ntxo    =       2, ntpr    =    1000, ntrx    =       1, ntwr    =   10000
     iwrap   =       1, ntwx    =   10000, ntwv    =       0, ntwe    =       0
     ioutfm  =       1, ntwprt  =       0, idecomp =       0, rbornstat=      0

Potential function:
     ntf     =       2, ntb     =       2, igb     =       0, nsnb    =      25
     ipol    =       0, gbsa    =       0, iesp    =       0
     dielc   =   1.00000, cut     =  12.00000, intdiel =   1.00000

Frozen or restrained atoms:
     ibelly  =       0, ntr     =       1
     restraint_wt =   0.00000

Molecular dynamics:
     nstlim  =   1250000, nscm    =         0, nrespa  =         1
     t       =   0.00000, dt      =   0.00100, vlimit  =  -1.00000

Langevin dynamics temperature regulation:
     ig      =  433161
     temp0   = 303.15000, tempi   =   0.00000, gamma_ln=   1.00000

Pressure regulation:
     ntp     =       3
     pres0   =   1.00000, comp    =  44.60000, taup    =   1.00000
     Monte-Carlo Barostat:
     mcbarint  =     100

Constant surface tension:
     csurften  =       3
     gamma_ten =   0.00000 ninterface =       2

SHAKE:
     ntc     =       2, jfastw  =       0
     tol     =   0.00001

Ewald parameters:
     verbose =       0, ew_type =       0, nbflag  =       1, use_pme =       1
     vdwmeth =       0, eedmeth =       1, netfrc  =       1
     Box X =   60.000   Box Y =   60.000   Box Z =  240.000
     Alpha =   90.000   Beta  =   90.000   Gamma =   90.000
     NFFT1 =   64       NFFT2 =   64       NFFT3 =  256
     Cutoff=   12.000   Tol   =0.100E-04
     Ewald Coefficient =  0.22664
     Interpolation order =    4

    LOADING THE CONSTRAINED ATOMS AS GROUPS

   5.  REFERENCE ATOM COORDINATES

    ----- READING GROUP     1; TITLE:
 Protein posres

     GROUP    1 HAS HARMONIC CONSTRAINTS     1.00000
 GRP    1 RES    1 TO  6757
      Number of atoms in this group  = 20234
    ----- END OF GROUP READ -----

--------------------------------------------------------------------------------
   3.  ATOMIC COORDINATES AND VELOCITIES
--------------------------------------------------------------------------------

 begin time read from input coords =  1250.000 ps

 Number of triangulated 3-point waters found:     6717

     Sum of charges from parm topology file =  -0.00000000
     Forcing neutrality...

--------------------------------------------------------------------------------
   4.  RESULTS
 NSTEP =     1000   TIME(PS) =    1251.000  TEMP(K) =   294.51  PRESS =     0.0
 Etot   =    -29823.3297  EKtot   =     27143.2031  EPtot      =    -56966.5329
 BOND   =      1705.5219  ANGLE   =      8211.9824  DIHED      =      5637.8791
 UB     =      2418.4387  IMP     =        -2.1044  CMAP       =         0.0000
 1-4 NB =       415.6104  1-4 EEL =     -2408.3677  VDWAALS    =       529.6286
 EELEC  =    -77560.7079  EHBOND  =         0.0000  RESTRAINT  =      4085.5860
 EAMBER (non-restraint)  =    -61052.1189
 EKCMT  =         0.0000  VIRIAL  =         0.0000  VOLUME     =    855802.2999
                                                    SURFTEN    =         0.0000
                                                    Density    =         0.4477
 ------------------------------------------------------------------------------

      A V E R A G E S   O V E R    1250 S T E P S

 NSTEP =  1250000   TIME(PS) =    2500.000  TEMP(K) =   303.26  PRESS =     0.0
 Etot   =    -28866.4703  EKtot   =     27949.2530  EPtot      =    -56815.7233
 BOND   =      1684.7946  ANGLE   =      8150.4351  DIHED      =      5636.3367
 UB     =      2395.3118  IMP     =        -1.7680  CMAP       =         0.0000
 1-4 NB =       411.4802  1-4 EEL =     -2515.3394  VDWAALS    =      1091.4571
 EELEC  =    -78070.9266  EHBOND  =         0.0000  RESTRAINT  =      4402.4954
 EAMBER (non-restraint)  =    -61218.2187
 EKCMT  =         0.0000  VIRIAL  =         0.0000  VOLUME     =    832596.4592
                                                    SURFTEN    =         0.0000
                                                    Density    =         0.4602
 ------------------------------------------------------------------------------

      R M S  F L U C T U A T I O N S

 NSTEP =  1250000   TIME(PS) =    2500.000  TEMP(K) =     1.40  PRESS =     0.0
 Etot   =       265.1539  EKtot   =       128.8876  EPtot      =       232.8714
 BOND   =        28.8353  ANGLE   =        59.1262  DIHED      =        40.5926
 UB     =        20.0481  IMP     =         0.4295  CMAP       =         0.0000
 1-4 NB =        13.4979  1-4 EEL =        77.3254  VDWAALS    =       194.6528
 EELEC  =       176.1045  EHBOND  =         0.0000  RESTRAINT  =        45.9953
 EAMBER (non-restraint)  =       186.8761
 EKCMT  =         0.0000  VIRIAL  =         0.0000  VOLUME     =      1689.6044
                                                    SURFTEN    =         0.0000
                                                    Density    =         0.0009
 ------------------------------------------------------------------------------
