-------------------------------------------------------
          Amber 20 PMEMD                              2020
          -------------------------------------------------------

  [-O]verwriting output

File Assignments:

 Here is the input file:

A NVT simulation for common production-level simulations
 &cntrl
    imin=0,        ! No minimization
    irest=1,       ! This IS a restart of an old MD simulation
    ntx=5,         ! So our inpcrd file has velocities

    ! Temperature control
    ntt=3,         ! Langevin dynamics
    gamma_ln=1.0,  ! Friction coefficient (ps^-1)
    temp0=303.15,   ! Target temperature

    ! Potential energy control
    cut=12.0,      ! nonbonded cutoff, in Angstroms
    fswitch=10.0,  ! Force-based switching

    ! MD settings
    nstlim=500000, ! 500K steps, 1 ns total
    dt=0.002,      ! time step (ps)

    ! SHAKE
    ntc=2,         ! Constrain bonds containing hydrogen
    ntf=2,         ! Do not calculate forces of bonds containing hydrogen

    ! Control how often information is printed
    ntpr=1000,     ! Print energies every 1000 steps
    ntwx=50000,    ! Print coordinates every 50000 steps to the trajectory
    ntwr=10000,    ! Print a restart file every 10K steps (can be less frequent
!   ntwv=-1,       ! Uncomment to also print velocities to trajectory
!   ntwf=-1,       ! Uncomment to also print forces to trajectory
    ntxo=2,        ! Write NetCDF format
    ioutfm=1,      ! Write NetCDF format (always do this!)

    ! Wrap coordinates when printing them to the same unit cell
    iwrap=1,

    ! Set water atom/residue names for SETTLE recognition
    watnam='WAT',  ! Water residues are named WAT
    owtnm='O',     ! Water oxygens are named O
 /

 &ewald
    vdwmeth = 0,
 /

Note: ig = -1. Setting random seed to   761528 based on wallclock time in
      microseconds.

--------------------------------------------------------------------------------
   1.  RESOURCE   USE:
--------------------------------------------------------------------------------

 getting box info from netcdf restart file
 NATOM  =   20234 NTYPES =      13 NBONH =   20171 MBONA  =      27
 NTHETH =    6756 MTHETA =      39 NPHIH =      59 MPHIA  =      64
 NHPARM =       0 NPARM  =       0 NNB   =   27143 NRES   =    6757
 NBONA  =      27 NTHETA =      39 NPHIA =      64 NUMBND =      17
 NUMANG =      30 NPTRA  =      52 NATYP =       0 NPHB   =       0
 IFBOX  =       1 NMXRS  =      44 IFCAP =       0 NEXTRA =       0
 NCOPY  =       0

     BOX TYPE: RECTILINEAR

--------------------------------------------------------------------------------
   2.  CONTROL  DATA  FOR  THE  RUN
--------------------------------------------------------------------------------

General flags:
     imin    =       0, nmropt  =       0

Nature and format of input:
     ntx     =       5, irest   =       1, ntrx    =       1

Nature and format of output:
     ntxo    =       2, ntpr    =    1000, ntrx    =       1, ntwr    =   10000
     iwrap   =       1, ntwx    =   50000, ntwv    =       0, ntwe    =       0
     ioutfm  =       1, ntwprt  =       0, idecomp =       0, rbornstat=      0

Potential function:
     ntf     =       2, ntb     =       1, igb     =       0, nsnb    =      25
     ipol    =       0, gbsa    =       0, iesp    =       0
     dielc   =   1.00000, cut     =  12.00000, intdiel =   1.00000

Frozen or restrained atoms:
     ibelly  =       0, ntr     =       0

Molecular dynamics:
     nstlim  =    500000, nscm    =      1000, nrespa  =         1
     t       =   0.00000, dt      =   0.00200, vlimit  =  -1.00000

Langevin dynamics temperature regulation:
     ig      =  761528
     temp0   = 303.15000, tempi   =   0.00000, gamma_ln=   1.00000

SHAKE:
     ntc     =       2, jfastw  =       0
     tol     =   0.00001

Ewald parameters:
     verbose =       0, ew_type =       0, nbflag  =       1, use_pme =       1
     vdwmeth =       0, eedmeth =       1, netfrc  =       1
     Box X =   58.669   Box Y =   58.669   Box Z =   58.669
     Alpha =   90.000   Beta  =   90.000   Gamma =   90.000
     NFFT1 =   64       NFFT2 =   64       NFFT3 =   64
     Cutoff=   12.000   Tol   =0.100E-04
     Ewald Coefficient =  0.22664
     Interpolation order =    4

--------------------------------------------------------------------------------
   3.  ATOMIC COORDINATES AND VELOCITIES
--------------------------------------------------------------------------------

 begin time read from input coords =  2125.000 ps

 Number of triangulated 3-point waters found:     6717

     Sum of charges from parm topology file =  -0.00000000
     Forcing neutrality...

--------------------------------------------------------------------------------
   4.  RESULTS
 NSTEP =     1000   TIME(PS) =    2127.000  TEMP(K) =   303.57  PRESS =     0.0
 Etot   =    -56209.4685  EKtot   =     12225.1729  EPtot      =    -68434.6413
 BOND   =        17.4827  ANGLE   =        10.9796  DIHED      =        26.1427
 UB     =         2.3621  IMP     =        -1.6190  CMAP       =         0.0000
 1-4 NB =        45.0239  1-4 EEL =       -58.5201  VDWAALS    =      7406.0115
 EELEC  =    -75882.5047  EHBOND  =         0.0000  RESTRAINT  =         0.0000
 ------------------------------------------------------------------------------

      A V E R A G E S   O V E R     500 S T E P S

 NSTEP =   500000   TIME(PS) =    3125.000  TEMP(K) =   303.28  PRESS =     0.0
 Etot   =    -56289.2559  EKtot   =     12213.7126  EPtot      =    -68502.9685
 BOND   =        19.3186  ANGLE   =        15.2043  DIHED      =        25.3907
 UB     =         2.5830  IMP     =        -1.6500  CMAP       =         0.0000
 1-4 NB =        45.6333  1-4 EEL =       -59.1182  VDWAALS    =      7321.7363
 EELEC  =    -75872.0665  EHBOND  =         0.0000  RESTRAINT  =         0.0000
 ------------------------------------------------------------------------------

      R M S  F L U C T U A T I O N S

 NSTEP =   500000   TIME(PS) =    3125.000  TEMP(K) =     2.08  PRESS =     0.0
 Etot   =       138.2628  EKtot   =        83.6942  EPtot      =       111.5356
 BOND   =         3.4789  ANGLE   =         2.5859  DIHED      =         2.8427
 UB     =         0.6047  IMP     =         0.4700  CMAP       =         0.0000
 1-4 NB =         2.6261  1-4 EEL =         0.9187  VDWAALS    =       120.2646
 EELEC  =       177.5250  EHBOND  =         0.0000  RESTRAINT  =         0.0000
 ------------------------------------------------------------------------------
