-------------------------------------------------------
          Amber 20 PMEMD                              2020
          -------------------------------------------------------

  [-O]verwriting output

File Assignments:

 Here is the input file:

A NVT simulation for common production-level simulations
 &cntrl
    imin=0,        ! No minimization
    irest=0,       ! This is NOT a restart of an old MD simulation
    ntx=1,         ! So our inpcrd file has no velocities

    ! Temperature control
    ntt=3,         ! Langevin dynamics
    gamma_ln=1.0,  ! Friction coefficient (ps^-1)
    tempi=303.15,   ! Initial temp -- give it some small random velocities
    temp0=303.15,   ! Target temperature

    ! Potential energy control
    cut=12.0,      ! nonbonded cutoff, in Angstroms
    fswitch=10.0,  ! Force-based switching

    ! MD settings
    nstlim=125000, ! 125K steps, 125 ps total
    dt=0.001,      ! time step (ps)

    ! SHAKE
    ntc=2,         ! Constrain bonds containing hydrogen
    ntf=2,         ! Do not calculate forces of bonds containing hydrogen

    ! Control how often information is printed
    ntpr=1000,     ! Print energies every 1000 steps
    ntwx=5000,     ! Print coordinates every 5000 steps to the trajectory
    ntwr=10000,    ! Print a restart file every 10K steps (can be less frequent
!   ntwv=-1,       ! Uncomment to also print velocities to trajectory
!   ntwf=-1,       ! Uncomment to also print forces to trajectory
    ntxo=2,        ! Write NetCDF format
    ioutfm=1,      ! Write NetCDF format (always do this!)

    ! Wrap coordinates when printing them to the same unit cell
    iwrap=0,

    ! Restraint options
    ntr=1,         ! Positional restraints for proteins, sugars, and ligands

    ! Set water atom/residue names for SETTLE recognition
    watnam='WAT',  ! Water residues are named WAT
    owtnm='O',     ! Water oxygens are named O
 /

 &ewald
    vdwmeth = 0,
 /
Protein posres
1.0
RES 1 1
END
END

Note: ig = -1. Setting random seed to   899401 based on wallclock time in
      microseconds.

--------------------------------------------------------------------------------
   1.  RESOURCE   USE:
--------------------------------------------------------------------------------

 getting box info from netcdf restart file
 NATOM  =   20234 NTYPES =      13 NBONH =   20171 MBONA  =      27
 NTHETH =    6756 MTHETA =      39 NPHIH =      59 MPHIA  =      64
 NHPARM =       0 NPARM  =       0 NNB   =   27143 NRES   =    6757
 NBONA  =      27 NTHETA =      39 NPHIA =      64 NUMBND =      17
 NUMANG =      30 NPTRA  =      52 NATYP =       0 NPHB   =       0
 IFBOX  =       1 NMXRS  =      44 IFCAP =       0 NEXTRA =       0
 NCOPY  =       0

     BOX TYPE: RECTILINEAR

--------------------------------------------------------------------------------
   2.  CONTROL  DATA  FOR  THE  RUN
--------------------------------------------------------------------------------

General flags:
     imin    =       0, nmropt  =       0

Nature and format of input:
     ntx     =       1, irest   =       0, ntrx    =       1

Nature and format of output:
     ntxo    =       2, ntpr    =    1000, ntrx    =       1, ntwr    =   10000
     iwrap   =       0, ntwx    =    5000, ntwv    =       0, ntwe    =       0
     ioutfm  =       1, ntwprt  =       0, idecomp =       0, rbornstat=      0

Potential function:
     ntf     =       2, ntb     =       1, igb     =       0, nsnb    =      25
     ipol    =       0, gbsa    =       0, iesp    =       0
     dielc   =   1.00000, cut     =  12.00000, intdiel =   1.00000

Frozen or restrained atoms:
     ibelly  =       0, ntr     =       1
     restraint_wt =   0.00000

Molecular dynamics:
     nstlim  =    125000, nscm    =         0, nrespa  =         1
     t       =   0.00000, dt      =   0.00100, vlimit  =  -1.00000

Langevin dynamics temperature regulation:
     ig      =  899401
     temp0   = 303.15000, tempi   = 303.15000, gamma_ln=   1.00000

SHAKE:
     ntc     =       2, jfastw  =       0
     tol     =   0.00001

Ewald parameters:
     verbose =       0, ew_type =       0, nbflag  =       1, use_pme =       1
     vdwmeth =       0, eedmeth =       1, netfrc  =       1
     Box X =   60.000   Box Y =   60.000   Box Z =   60.000
     Alpha =   90.000   Beta  =   90.000   Gamma =   90.000
     NFFT1 =   64       NFFT2 =   64       NFFT3 =   64
     Cutoff=   12.000   Tol   =0.100E-04
     Ewald Coefficient =  0.22664
     Interpolation order =    4

    LOADING THE CONSTRAINED ATOMS AS GROUPS

   5.  REFERENCE ATOM COORDINATES

    ----- READING GROUP     1; TITLE:
 Protein posres

     GROUP    1 HAS HARMONIC CONSTRAINTS     1.00000
 GRP    1 RES    1 TO     1
      Number of atoms in this group  =    44
    ----- END OF GROUP READ -----

--------------------------------------------------------------------------------
   3.  ATOMIC COORDINATES AND VELOCITIES
--------------------------------------------------------------------------------

 begin time read from input coords =     0.000 ps

 Number of triangulated 3-point waters found:     6717

     Sum of charges from parm topology file =  -0.00000000
     Forcing neutrality...

--------------------------------------------------------------------------------
   4.  RESULTS
 NSTEP =        0   TIME(PS) =       0.000  TEMP(K) =   450.70  PRESS =     0.0
 Etot   =    -73897.2184  EKtot   =     18150.4688  EPtot      =    -92047.6871
 BOND   =        11.5564  ANGLE   =      1839.4026  DIHED      =        16.4635
 UB     =         0.7033  IMP     =        -1.6563  CMAP       =         0.0000
 1-4 NB =        43.5636  1-4 EEL =       -59.0815  VDWAALS    =     13261.6115
 EELEC  =   -107160.2502  EHBOND  =         0.0000  RESTRAINT  =         0.0000
 ------------------------------------------------------------------------------

      A V E R A G E S   O V E R     125 S T E P S

 NSTEP =   125000   TIME(PS) =     125.000  TEMP(K) =   301.93  PRESS =     0.0
 Etot   =    -55526.4438  EKtot   =     12159.2182  EPtot      =    -67685.6620
 BOND   =        18.8482  ANGLE   =        14.6341  DIHED      =        24.3395
 UB     =         2.4236  IMP     =        -1.6202  CMAP       =         0.0000
 1-4 NB =        45.2648  1-4 EEL =       -58.9273  VDWAALS    =      7108.0236
 EELEC  =    -74842.8964  EHBOND  =         0.0000  RESTRAINT  =         4.2482
 EAMBER (non-restraint)  =    -67689.9103
 ------------------------------------------------------------------------------

      R M S  F L U C T U A T I O N S

 NSTEP =   125000   TIME(PS) =     125.000  TEMP(K) =     7.01  PRESS =     0.0
 Etot   =       859.7599  EKtot   =       282.1897  EPtot      =       589.9919
 BOND   =         3.7569  ANGLE   =         2.6513  DIHED      =         2.3777
 UB     =         0.6368  IMP     =         0.5025  CMAP       =         0.0000
 1-4 NB =         2.6099  1-4 EEL =         0.7961  VDWAALS    =       223.8282
 EELEC  =       796.2186  EHBOND  =         0.0000  RESTRAINT  =         1.3899
 EAMBER (non-restraint)  =       588.6020
 ------------------------------------------------------------------------------
