-------------------------------------------------------
          Amber 20 PMEMD                              2020
          -------------------------------------------------------

  [-O]verwriting output

File Assignments:

 Here is the input file:

A NPT simulation for common production-level simulations
 &cntrl
    imin=0,        ! No minimization
    irest=1,       ! This IS a restart of an old MD simulation
    ntx=5,         ! So our inpcrd file has velocities
	infe=1 		! use nfe module

    ! Temperature control
    ntt=3,         ! Langevin dynamics
    gamma_ln=1.0,  ! Friction coefficient (ps^-1)
    temp0=310.15,   ! Target temperature

    ! Potential energy control
    cut=12.0,      ! Nonbonded cutoff, in Angstroms
    fswitch=10.0,  ! Force-based switching

    ! MD settings
    nstlim=25000,  ! 25K steps, 25 ps total
    dt=0.001,      ! time step (ps)

    ! SHAKE
    ntc=2,         ! Constrain bonds containing hydrogen
    ntf=2,         ! Do not calculate forces of bonds containing hydrogen

    ! Control how often information is printed
    ntpr=1000,     ! Print energies every 1000 steps
    ntwx=1000,     ! Print coordinates every 1000 steps to the trajectory
    ntwr=10000,    ! Print a restart file every 10K steps (can be less frequent
!   ntwv=-1,       ! Uncomment to also print velocities to trajectory
!   ntwf=-1,       ! Uncomment to also print forces to trajectory
    ntxo=2,        ! Write NetCDF format
    ioutfm=1,      ! Write NetCDF format (always do this!)

    ! Wrap coordinates when printing them to the same unit cell
    iwrap=0,

    ! Constant pressure control.
    !barostat=2,    ! MC barostat... change to 1 for Berendsen
    !ntp=1,         ! 1=isotropic, 2=anisotropic, 3=semi-isotropic w/ surften
    !pres0=1.0,     ! Target external pressure, in bar

    ! Constant surface tension (needed for semi-isotropic scaling). Uncomment
    ! for this feature. csurften must be nonzero if ntp=3 above
    !csurften=3,    ! Interfaces in 1=yz plane, 2=xz plane, 3=xy plane
    !gamma_ten=0.0, ! Surface tension (dyne/cm). 0 gives pure semi-iso scaling
    !ninterface=2,  ! Number of interfaces (2 for bilayer)

	! Restraint options
	! nmropt used to:
	! 1) restrain beams from deflecting too far from
	! 	 plug region
	! 2) pull / restrain 3 sets of 6 ligands each to stay within
	! 	 35 Ã… of the chimera binding pocket region of the nearest chain
        ntr=1,	   ! Positional restraints
        restraint_wt=100.00,
        restraintmask=':3749,7171'

	! Restraint options
    	nmropt=1,      ! Dihedral restraints for sugars and lipids

    ! Set water atom/residue names for SETTLE recognition
    watnam='TIP3',  ! Water residues are named WAT
    owtnm='OH2',     ! Water oxygens are named O
 /

 &ewald
    vdwmeth = 0,
 /

&wt
   type='DUMPFREQ',istep1=5000
 /

&wt
  type='END'
 /

DISANG=step5.00.0_pmfSetup.rest
DUMPAVE=step5.00.0_pmfSetup.dat
LISTIN=POUT
LISTOUT=POUT
/

Note: ig = -1. Setting random seed to   156325 based on wallclock time in
      microseconds.

--------------------------------------------------------------------------------
   1.  RESOURCE   USE:
--------------------------------------------------------------------------------

 getting new box info from bottom of inpcrd
 NATOM  =   42644 NTYPES =      18 NBONH =   35111 MBONA  =    6667
 NTHETH =   34899 MTHETA =    5849 NPHIH =   51519 MPHIA  =   17494
 NHPARM =       0 NPARM  =       0 NNB   =  145003 NRES   =    7587
 NBONA  =    6667 NTHETA =    5849 NPHIA =   17494 NUMBND =      22
 NUMANG =      38 NPTRA  =      71 NATYP =       1 NPHB   =       0
 IFBOX  =       1 NMXRS  =      44 IFCAP =       0 NEXTRA =       0
 NCOPY  =       0

     BOX TYPE: RECTILINEAR

--------------------------------------------------------------------------------
   2.  CONTROL  DATA  FOR  THE  RUN
--------------------------------------------------------------------------------

General flags:
     imin    =       0, nmropt  =       1

Nature and format of input:
     ntx     =       5, irest   =       1, ntrx    =       1

Nature and format of output:
     ntxo    =       2, ntpr    =    1000, ntrx    =       1, ntwr    =   10000
     iwrap   =       0, ntwx    =    1000, ntwv    =       0, ntwe    =       0
     ioutfm  =       1, ntwprt  =       0, idecomp =       0, rbornstat=      0

Potential function:
     ntf     =       2, ntb     =       1, igb     =       0, nsnb    =      25
     ipol    =       0, gbsa    =       0, iesp    =       0
     dielc   =   1.00000, cut     =  12.00000, intdiel =   1.00000

Frozen or restrained atoms:
     ibelly  =       0, ntr     =       1
     restraint_wt = 100.00000

Molecular dynamics:
     nstlim  =     25000, nscm    =         0, nrespa  =         1
     t       =   0.00000, dt      =   0.00100, vlimit  =  -1.00000

Langevin dynamics temperature regulation:
     ig      =  156325
     temp0   = 310.15000, tempi   =   0.00000, gamma_ln=   1.00000

SHAKE:
     ntc     =       2, jfastw  =       0
     tol     =   0.00001

NMR refinement options:
     iscale  =       0, noeskp  =       1, ipnlty  =       1, mxsub   =       1
     scalm   = 100.00000, pencut  =   0.10000, tausw   =   0.10000

Ewald parameters:
     verbose =       0, ew_type =       0, nbflag  =       1, use_pme =       1
     vdwmeth =       0, eedmeth =       1, netfrc  =       1
     Box X =   59.713   Box Y =   59.713   Box Z =  118.933
     Alpha =   90.000   Beta  =   90.000   Gamma =   90.000
     NFFT1 =   64       NFFT2 =   64       NFFT3 =  128
     Cutoff=   12.000   Tol   =0.100E-04
     Ewald Coefficient =  0.22664
     Interpolation order =    4

    LOADING THE CONSTRAINED ATOMS AS GROUPS

   5.  REFERENCE ATOM COORDINATES

  Cpptraj Generated Restart
     Mask :3749,7171; matches    30 atoms

--------------------------------------------------------------------------------
   3.  ATOMIC COORDINATES AND VELOCITIES
--------------------------------------------------------------------------------

Cpptraj Generated Restart
 begin time read from input coords =  3750.000 ps

           Begin reading energy term weight changes/NMR restraints
 WEIGHT CHANGES:
 DUMPFREQ   5000      0    0.000000    0.000000      0      0
                         ** No weight changes given **

 RESTRAINTS:
 Requested file redirections:
  DISANG    = step5.00.0_pmfSetup.rest
  DUMPAVE   = step5.00.0_pmfSetup.dat
  LISTIN    = POUT
  LISTOUT   = POUT
 Restraints will be read from file: step5.00.0_pmfSetup.rest
Here are comments from the DISANG input file:

******
 COM (   -1)-COM (   -1)                            NSTEP1=     0 NSTEP2=     0
 Atom ranges defining Center of Mass Group in the first position:
     1 ->    44/
 Atom ranges defining Center of Mass Group in the second position:
 11208 -> 11210/
R1 =  34.250 R2 =  44.250 R3 =  44.250 R4 =  54.250 RK2 =   5.000 RK3 =    1.000
 Rcurr:  -12.581  Rcurr-(R2+R3)/2:   56.831  MIN(Rcurr-R2,Rcurr-R3):   56.831
******
 COM (   -1)-COM (   -1)                            NSTEP1=     0 NSTEP2=     0
 Atom ranges defining Center of Mass Group in the first position:
     1 ->    44/
 Atom ranges defining Center of Mass Group in the second position:
 31386 -> 31412/
R1 =  34.250 R2 =  44.250 R3 =  44.250 R4 =  54.250 RK2 =   5.000 RK3 =    1.000
 Rcurr: -100.916  Rcurr-(R2+R3)/2:  145.166  MIN(Rcurr-R2,Rcurr-R3):  145.166
                       Number of restraints read =     2

                  Done reading weight changes/NMR restraints

 Number of triangulated 3-point waters found:     6717

     Sum of charges from parm topology file =  -0.00000000
     Forcing neutrality...

--------------------------------------------------------------------------------
   4.  RESULTS
 NSTEP =     1000   TIME(PS) =    3751.000  TEMP(K) =   329.05  PRESS =     0.0
 Etot   =    -13861.4666  EKtot   =     30346.7617  EPtot      =    -44208.2284
 BOND   =      1769.3630  ANGLE   =      8273.1963  DIHED      =      5670.2279
 UB     =      2442.7616  IMP     =        -2.5214  CMAP       =         0.0000
 1-4 NB =       418.8980  1-4 EEL =     -2635.5832  VDWAALS    =     -1416.1593
 EELEC  =    -72506.0875  EHBOND  =         0.0000  RESTRAINT  =     13777.6763
 EAMBER (non-restraint)  =    -57985.9047
 ------------------------------------------------------------------------------

      A V E R A G E S   O V E R      25 S T E P S

 NSTEP =    25000   TIME(PS) =    3775.000  TEMP(K) =   313.10  PRESS =     0.0
 Etot   =    -26576.5609  EKtot   =     28876.2927  EPtot      =    -55452.8536
 BOND   =      1728.0894  ANGLE   =      8368.1898  DIHED      =      5741.3601
 UB     =      2461.1194  IMP     =        -1.5124  CMAP       =         0.0000
 1-4 NB =       439.1609  1-4 EEL =     -2550.5291  VDWAALS    =     -1974.6651
 EELEC  =    -72735.6745  EHBOND  =         0.0000  RESTRAINT  =      3071.6081
 EAMBER (non-restraint)  =    -58524.4617
 ------------------------------------------------------------------------------

      R M S  F L U C T U A T I O N S

 NSTEP =    25000   TIME(PS) =    3775.000  TEMP(K) =     6.21  PRESS =     0.0
 Etot   =      3729.7998  EKtot   =       572.3708  EPtot      =      3210.3284
 BOND   =        34.3436  ANGLE   =        69.7623  DIHED      =        85.9716
 UB     =        21.5627  IMP     =         0.6405  CMAP       =         0.0000
 1-4 NB =        22.9470  1-4 EEL =        70.1153  VDWAALS    =       176.7230
 EELEC  =       384.7544  EHBOND  =         0.0000  RESTRAINT  =      2890.7555
 EAMBER (non-restraint)  =       319.5729
 ------------------------------------------------------------------------------
