-------------------------------------------------------
          Amber 20 PMEMD                              2020
          -------------------------------------------------------

  [-O]verwriting output

File Assignments:

 Here is the input file:

A NPT simulation for common production-level simulations
 &cntrl
    imin=0,        ! No minimization
    irest=0,       ! This IS a restart of an old MD simulation
    ntx=1,         ! So our inpcrd file has NO velocities
    !infe=1 		! use nfe module

    ! Temperature control
    ntt=3,         ! Langevin dynamics
    gamma_ln=1.0,  ! Friction coefficient (ps^-1)
    temp0=310.15,   ! Target temperature

    ! Potential energy control
    cut=12.0,      ! Nonbonded cutoff, in Angstroms
    fswitch=10.0,  ! Force-based switching

    ! MD settings
    nstlim=500000,  ! 500K steps, 1 ns total
    dt=0.002,      ! time step (ps)

    ! SHAKE
    ntc=2,         ! Constrain bonds containing hydrogen
    ntf=2,         ! Do not calculate forces of bonds containing hydrogen

    ! Control how often information is printed
    ntpr=5000,     ! Print energies every 5000 steps 10 ps
    ntwx=5000,     ! Print coordinates every 5000 steps to the trajectory
    ntwr=50000,    ! Print a restart file every 50K steps (can be less frequent
!   ntwv=-1,       ! Uncomment to also print velocities to trajectory
!   ntwf=-1,       ! Uncomment to also print forces to trajectory
    ntxo=2,        ! Write NetCDF format
    ioutfm=1,      ! Write NetCDF format (always do this!)

    ! Wrap coordinates when printing them to the same unit cell
    iwrap=0,

    ! Constant pressure control.
    !barostat=2,    ! MC barostat... change to 1 for Berendsen
    !ntp=1,         ! 1=isotropic, 2=anisotropic, 3=semi-isotropic w/ surften
    !pres0=1.0,     ! Target external pressure, in bar

    ! Constant surface tension (needed for semi-isotropic scaling). Uncomment
    ! for this feature. csurften must be nonzero if ntp=3 above
    !csurften=3,    ! Interfaces in 1=yz plane, 2=xz plane, 3=xy plane
    !gamma_ten=0.0, ! Surface tension (dyne/cm). 0 gives pure semi-iso scaling
    !ninterface=2,  ! Number of interfaces (2 for bilayer)

	! Restraint options
	! nmropt used to:
	! 1) restrain beams from deflecting too far from
	! 	 plug region
	! 2) pull / restrain 3 sets of 6 ligands each to stay within
	! 	 35 Ã… of the chimera binding pocket region of the nearest chain
        ntr=1,	   ! Positional restraints
        restraint_wt=100.00,
        restraintmask=':3749,7171'

	! Restraint options
    	nmropt=1,      ! Dihedral restraints for sugars and lipids

    ! Set water atom/residue names for SETTLE recognition
    watnam='TIP3',  ! Water residues are named WAT
    owtnm='OH2',     ! Water oxygens are named O
 /

 &ewald
    vdwmeth = 0,
 /

&wt
   type='DUMPFREQ',istep1=5000
 /

&wt
  type='END'
 /

DISANG=step5.00.2_pmfSetup.rest
DUMPAVE=step5.00.2_pmfSetup.dat
LISTIN=POUT
LISTOUT=POUT
/

Note: ig = -1. Setting random seed to   534926 based on wallclock time in
      microseconds.

--------------------------------------------------------------------------------
   1.  RESOURCE   USE:
--------------------------------------------------------------------------------

 getting box info from netcdf restart file
 NATOM  =   42644 NTYPES =      18 NBONH =   35111 MBONA  =    6667
 NTHETH =   34899 MTHETA =    5849 NPHIH =   51519 MPHIA  =   17494
 NHPARM =       0 NPARM  =       0 NNB   =  145003 NRES   =    7587
 NBONA  =    6667 NTHETA =    5849 NPHIA =   17494 NUMBND =      22
 NUMANG =      38 NPTRA  =      71 NATYP =       1 NPHB   =       0
 IFBOX  =       1 NMXRS  =      44 IFCAP =       0 NEXTRA =       0
 NCOPY  =       0

     BOX TYPE: RECTILINEAR

--------------------------------------------------------------------------------
   2.  CONTROL  DATA  FOR  THE  RUN
--------------------------------------------------------------------------------

General flags:
     imin    =       0, nmropt  =       1

Nature and format of input:
     ntx     =       1, irest   =       0, ntrx    =       1

Nature and format of output:
     ntxo    =       2, ntpr    =    5000, ntrx    =       1, ntwr    =   50000
     iwrap   =       0, ntwx    =    5000, ntwv    =       0, ntwe    =       0
     ioutfm  =       1, ntwprt  =       0, idecomp =       0, rbornstat=      0

Potential function:
     ntf     =       2, ntb     =       1, igb     =       0, nsnb    =      25
     ipol    =       0, gbsa    =       0, iesp    =       0
     dielc   =   1.00000, cut     =  12.00000, intdiel =   1.00000

Frozen or restrained atoms:
     ibelly  =       0, ntr     =       1
     restraint_wt = 100.00000

Molecular dynamics:
     nstlim  =    500000, nscm    =         0, nrespa  =         1
     t       =   0.00000, dt      =   0.00200, vlimit  =  -1.00000

Langevin dynamics temperature regulation:
     ig      =  534926
     temp0   = 310.15000, tempi   =   0.00000, gamma_ln=   1.00000

SHAKE:
     ntc     =       2, jfastw  =       0
     tol     =   0.00001

NMR refinement options:
     iscale  =       0, noeskp  =       1, ipnlty  =       1, mxsub   =       1
     scalm   = 100.00000, pencut  =   0.10000, tausw   =   0.10000

Ewald parameters:
     verbose =       0, ew_type =       0, nbflag  =       1, use_pme =       1
     vdwmeth =       0, eedmeth =       1, netfrc  =       1
     Box X =   59.713   Box Y =   59.713   Box Z =  118.933
     Alpha =   90.000   Beta  =   90.000   Gamma =   90.000
     NFFT1 =   64       NFFT2 =   64       NFFT3 =  128
     Cutoff=   12.000   Tol   =0.100E-04
     Ewald Coefficient =  0.22664
     Interpolation order =    4

    LOADING THE CONSTRAINED ATOMS AS GROUPS

   5.  REFERENCE ATOM COORDINATES

     Mask :3749,7171; matches    30 atoms

--------------------------------------------------------------------------------
   3.  ATOMIC COORDINATES AND VELOCITIES
--------------------------------------------------------------------------------

 begin time read from input coords =    25.000 ps

           Begin reading energy term weight changes/NMR restraints
 WEIGHT CHANGES:
 DUMPFREQ   5000      0    0.000000    0.000000      0      0
                         ** No weight changes given **

 RESTRAINTS:
 Requested file redirections:
  DISANG    = step5.00.2_pmfSetup.rest
  DUMPAVE   = step5.00.2_pmfSetup.dat
  LISTIN    = POUT
  LISTOUT   = POUT
 Restraints will be read from file: step5.00.2_pmfSetup.rest
Here are comments from the DISANG input file:

******
 COM (   -1)-COM (   -1)                            NSTEP1=     0 NSTEP2=     0
 Atom ranges defining Center of Mass Group in the first position:
     1 ->    44/
 Atom ranges defining Center of Mass Group in the second position:
 11208 -> 11210/
R1 =   5.000 R2 =  15.000 R3 =  15.000 R4 =  25.000 RK2 =   0.250 RK3 =    0.250
 Rcurr:   15.875  Rcurr-(R2+R3)/2:    0.875  MIN(Rcurr-R2,Rcurr-R3):    0.875
******
 COM (   -1)-COM (   -1)                            NSTEP1=     0 NSTEP2=     0
 Atom ranges defining Center of Mass Group in the first position:
     1 ->    44/
 Atom ranges defining Center of Mass Group in the second position:
 31386 -> 31412/
R1 =  34.250 R2 =  44.250 R3 =  44.250 R4 =  54.250 RK2 =   0.000 RK3 =    0.000
 Rcurr:  -72.450  Rcurr-(R2+R3)/2:  116.700  MIN(Rcurr-R2,Rcurr-R3):  116.700
                       Number of restraints read =     2

                  Done reading weight changes/NMR restraints

 Number of triangulated 3-point waters found:     6717

     Sum of charges from parm topology file =  -0.00000000
     Forcing neutrality...

--------------------------------------------------------------------------------
   4.  RESULTS
 NSTEP =        0   TIME(PS) =       0.000  TEMP(K) =     0.00  PRESS =     0.0
 Etot   =    -59143.0612  EKtot   =         0.0000  EPtot      =    -59143.0612
 BOND   =      1710.9837  ANGLE   =      8331.6858  DIHED      =      5701.7363
 UB     =      2454.8655  IMP     =        -2.2139  CMAP       =         0.0000
 1-4 NB =       432.6601  1-4 EEL =     -2573.2748  VDWAALS    =     -1764.8987
 EELEC  =    -73434.7964  EHBOND  =         0.0000  RESTRAINT  =         0.1912
 EAMBER (non-restraint)  =    -59143.2524
 ------------------------------------------------------------------------------

      A V E R A G E S   O V E R     100 S T E P S

 NSTEP =   500000   TIME(PS) =    1000.000  TEMP(K) =   310.10  PRESS =     0.0
 Etot   =    -29760.6827  EKtot   =     28599.8863  EPtot      =    -58360.5690
 BOND   =      1771.9254  ANGLE   =      8590.9091  DIHED      =      5698.1565
 UB     =      2521.1710  IMP     =        -1.6028  CMAP       =         0.0000
 1-4 NB =       439.4708  1-4 EEL =     -2480.2336  VDWAALS    =     -1935.1157
 EELEC  =    -72983.0464  EHBOND  =         0.0000  RESTRAINT  =        17.7968
 EAMBER (non-restraint)  =    -58378.3658
 ------------------------------------------------------------------------------

      R M S  F L U C T U A T I O N S

 NSTEP =   500000   TIME(PS) =    1000.000  TEMP(K) =     1.56  PRESS =     0.0
 Etot   =       240.6141  EKtot   =       143.4581  EPtot      =       177.6500
 BOND   =        30.6855  ANGLE   =        68.4118  DIHED      =        36.6490
 UB     =        20.8460  IMP     =         0.4891  CMAP       =         0.0000
 1-4 NB =        13.2783  1-4 EEL =        78.5485  VDWAALS    =       116.2099
 EELEC  =       205.6191  EHBOND  =         0.0000  RESTRAINT  =         3.2567
 EAMBER (non-restraint)  =       174.3933
 ------------------------------------------------------------------------------
