-------------------------------------------------------
          Amber 20 PMEMD                              2020
          -------------------------------------------------------

  [-O]verwriting output

File Assignments:

 Here is the input file:

A NVT simulation for common production-level simulations
 &cntrl
    imin=0,        ! No minimization
    irest=0,       ! This is NOT a restart of an old MD simulation
    ntx=1,         ! So our inpcrd file has no velocities

    ! Temperature control
    ntt=3,         ! Langevin dynamics
    gamma_ln=1.0,  ! Friction coefficient (ps^-1)
    tempi=303.15,   ! Initial temp -- give it some small random velocities
    temp0=303.15,   ! Target temperature

    ! Potential energy control
    cut=12.0,      ! nonbonded cutoff, in Angstroms
    fswitch=10.0,  ! Force-based switching

    ! MD settings
    nstlim=1250000, ! 1250K steps, 1.25 ns total
    dt=0.001,      ! time step (ps)

    ! SHAKE
    ntc=2,         ! Constrain bonds containing hydrogen
    ntf=2,         ! Do not calculate forces of bonds containing hydrogen

    ! Control how often information is printed
    ntpr=1000,     ! Print energies every 1000 steps
    ntwx=10000,     ! Print coordinates every 10k steps (10 ps) to the trajecto
    ntwr=100000,    ! Print a restart file every 100K steps (can be less freque
!   ntwv=-1,       ! Uncomment to also print velocities to trajectory
!   ntwf=-1,       ! Uncomment to also print forces to trajectory
    ntxo=2,        ! Write NetCDF format
    ioutfm=1,      ! Write NetCDF format (always do this!)

    ! Wrap coordinates when printing them to the same unit cell
    iwrap=0,

    ! Restraint options
    ntr=1,         ! Positional restraints, hold ETDM fixed

    ! Set water atom/residue names for SETTLE recognition
    watnam='TIP3',  ! Water residues are named WAT
    owtnm='OH2',     ! Water oxygens are named O
 /

 &ewald
    vdwmeth = 0,
 /
Protein posres
1.0
RES 1 1
END
END

Note: ig = -1. Setting random seed to   432929 based on wallclock time in
      microseconds.

--------------------------------------------------------------------------------
   1.  RESOURCE   USE:
--------------------------------------------------------------------------------

 getting box info from netcdf restart file
 NATOM  =   42644 NTYPES =      18 NBONH =   35111 MBONA  =    6667
 NTHETH =   34899 MTHETA =    5849 NPHIH =   51519 MPHIA  =   17494
 NHPARM =       0 NPARM  =       0 NNB   =  145003 NRES   =    7587
 NBONA  =    6667 NTHETA =    5849 NPHIA =   17494 NUMBND =      22
 NUMANG =      38 NPTRA  =      71 NATYP =       1 NPHB   =       0
 IFBOX  =       1 NMXRS  =      44 IFCAP =       0 NEXTRA =       0
 NCOPY  =       0

     BOX TYPE: RECTILINEAR

--------------------------------------------------------------------------------
   2.  CONTROL  DATA  FOR  THE  RUN
--------------------------------------------------------------------------------

General flags:
     imin    =       0, nmropt  =       0

Nature and format of input:
     ntx     =       1, irest   =       0, ntrx    =       1

Nature and format of output:
     ntxo    =       2, ntpr    =    1000, ntrx    =       1, ntwr    =  100000
     iwrap   =       0, ntwx    =   10000, ntwv    =       0, ntwe    =       0
     ioutfm  =       1, ntwprt  =       0, idecomp =       0, rbornstat=      0

Potential function:
     ntf     =       2, ntb     =       1, igb     =       0, nsnb    =      25
     ipol    =       0, gbsa    =       0, iesp    =       0
     dielc   =   1.00000, cut     =  12.00000, intdiel =   1.00000

Frozen or restrained atoms:
     ibelly  =       0, ntr     =       1
     restraint_wt =   0.00000

Molecular dynamics:
     nstlim  =   1250000, nscm    =         0, nrespa  =         1
     t       =   0.00000, dt      =   0.00100, vlimit  =  -1.00000

Langevin dynamics temperature regulation:
     ig      =  432929
     temp0   = 303.15000, tempi   = 303.15000, gamma_ln=   1.00000

SHAKE:
     ntc     =       2, jfastw  =       0
     tol     =   0.00001

Ewald parameters:
     verbose =       0, ew_type =       0, nbflag  =       1, use_pme =       1
     vdwmeth =       0, eedmeth =       1, netfrc  =       1
     Box X =   60.500   Box Y =   60.500   Box Z =  120.500
     Alpha =   90.000   Beta  =   90.000   Gamma =   90.000
     NFFT1 =   64       NFFT2 =   64       NFFT3 =  128
     Cutoff=   12.000   Tol   =0.100E-04
     Ewald Coefficient =  0.22664
     Interpolation order =    4

    LOADING THE CONSTRAINED ATOMS AS GROUPS

   5.  REFERENCE ATOM COORDINATES

    ----- READING GROUP     1; TITLE:
 Protein posres

     GROUP    1 HAS HARMONIC CONSTRAINTS     1.00000
 GRP    1 RES    1 TO     1
      Number of atoms in this group  =    44
    ----- END OF GROUP READ -----

--------------------------------------------------------------------------------
   3.  ATOMIC COORDINATES AND VELOCITIES
--------------------------------------------------------------------------------

 begin time read from input coords =     0.000 ps

 Number of triangulated 3-point waters found:     6717

     Sum of charges from parm topology file =  -0.00000000
     Forcing neutrality...

--------------------------------------------------------------------------------
   4.  RESULTS
 NSTEP =        0   TIME(PS) =       0.000  TEMP(K) =   416.83  PRESS =     0.0
 Etot   =    -57244.5040  EKtot   =     38443.1291  EPtot      =    -95687.6331
 BOND   =        70.4283  ANGLE   =       566.2444  DIHED      =      3826.3962
 UB     =        83.5706  IMP     =        -1.7719  CMAP       =         0.0000
 1-4 NB =      -110.3936  1-4 EEL =     -2530.9139  VDWAALS    =      1894.8283
 EELEC  =    -99486.0215  EHBOND  =         0.0000  RESTRAINT  =         0.0000
 ------------------------------------------------------------------------------

      A V E R A G E S   O V E R    1250 S T E P S

 NSTEP =  1250000   TIME(PS) =    1250.000  TEMP(K) =   303.05  PRESS =     0.0
 Etot   =    -30893.4668  EKtot   =     27949.5317  EPtot      =    -58842.9985
 BOND   =      1688.6005  ANGLE   =      8152.8302  DIHED      =      5618.9130
 UB     =      2396.4509  IMP     =        -1.6192  CMAP       =         0.0000
 1-4 NB =       407.7688  1-4 EEL =     -2522.5352  VDWAALS    =     -1443.0528
 EELEC  =    -73144.6968  EHBOND  =         0.0000  RESTRAINT  =         4.3420
 EAMBER (non-restraint)  =    -58847.3405
 ------------------------------------------------------------------------------

      R M S  F L U C T U A T I O N S

 NSTEP =  1250000   TIME(PS) =    1250.000  TEMP(K) =     2.33  PRESS =     0.0
 Etot   =       470.9507  EKtot   =       214.6486  EPtot      =       298.2961
 BOND   =        30.8421  ANGLE   =        75.5489  DIHED      =        41.6151
 UB     =        24.4417  IMP     =         0.4694  CMAP       =         0.0000
 1-4 NB =        12.9054  1-4 EEL =        73.0624  VDWAALS    =       132.7720
 EELEC  =       284.0318  EHBOND  =         0.0000  RESTRAINT  =         1.3991
 EAMBER (non-restraint)  =       296.8971
 ------------------------------------------------------------------------------
