-------------------------------------------------------
          Amber 20 PMEMD                              2020
          -------------------------------------------------------

  [-O]verwriting output

File Assignments:

 Here is the input file:

A NVT simulation for common production-level simulations
 &cntrl
    imin=0,        ! No minimization
    irest=1,       ! This IS a restart of an old MD simulation
    ntx=5,         ! So our inpcrd file has velocities

    ! Temperature control
    ntt=3,         ! Langevin dynamics
    gamma_ln=1.0,  ! Friction coefficient (ps^-1)
    temp0=303.15,   ! Target temperature

    ! Potential energy control
    cut=12.0,      ! nonbonded cutoff, in Angstroms
    fswitch=10.0,  ! Force-based switching

    ! MD settings
    nstlim=1250000, ! 1250K steps, 1.25 ns total
    dt=0.001,      ! time step (ps)

    ! SHAKE
    ntc=2,         ! Constrain bonds containing hydrogen
    ntf=2,         ! Do not calculate forces of bonds containing hydrogen

    ! Control how often information is printed
    ntpr=1000,     ! Print energies every 1000 steps
    ntwx=10000,    ! Print coordinates every 10K steps to the trajectory
    ntwr=100000,    ! Print a restart file every 100K steps (can be less freque
!   ntwv=-1,       ! Uncomment to also print velocities to trajectory
!   ntwf=-1,       ! Uncomment to also print forces to trajectory
    ntxo=2,        ! Write NetCDF format
    ioutfm=1,      ! Write NetCDF format (always do this!)

    ! Wrap coordinates when printing them to the same unit cell
    iwrap=1,

    ! Restraint options
    !nmropt=1,      ! Dihedral restraints for sugars and lipids
    !csurften=3,
    !gamma_ten=0.0,
    !ninterface=2,

    ntr=1, !only hold ETDM fixed
    ! Constant pressure control
    barostat=2,  !MC barostat
    ntp=1,       !1=isotropic; 2=anisotropic, 3=semi-isotropic w/ surften
    pres0=1.0,   ! Target external pressure = 1.0 bar

    ! Set water atom/residue names for SETTLE recognition
    watnam='TIP3',  ! Water residues are named WAT
    owtnm='OH2',     ! Water oxygens are named O
 /

 &ewald
    vdwmeth = 0,
 /
Protein posres
1.0
RES 1 1
END
END

Note: ig = -1. Setting random seed to   693541 based on wallclock time in
      microseconds.

--------------------------------------------------------------------------------
   1.  RESOURCE   USE:
--------------------------------------------------------------------------------

 getting box info from netcdf restart file
 NATOM  =   42644 NTYPES =      18 NBONH =   35111 MBONA  =    6667
 NTHETH =   34899 MTHETA =    5849 NPHIH =   51519 MPHIA  =   17494
 NHPARM =       0 NPARM  =       0 NNB   =  145003 NRES   =    7587
 NBONA  =    6667 NTHETA =    5849 NPHIA =   17494 NUMBND =      22
 NUMANG =      38 NPTRA  =      71 NATYP =       1 NPHB   =       0
 IFBOX  =       1 NMXRS  =      44 IFCAP =       0 NEXTRA =       0
 NCOPY  =       0

     BOX TYPE: RECTILINEAR

--------------------------------------------------------------------------------
   2.  CONTROL  DATA  FOR  THE  RUN
--------------------------------------------------------------------------------

General flags:
     imin    =       0, nmropt  =       0

Nature and format of input:
     ntx     =       5, irest   =       1, ntrx    =       1

Nature and format of output:
     ntxo    =       2, ntpr    =    1000, ntrx    =       1, ntwr    =  100000
     iwrap   =       1, ntwx    =   10000, ntwv    =       0, ntwe    =       0
     ioutfm  =       1, ntwprt  =       0, idecomp =       0, rbornstat=      0

Potential function:
     ntf     =       2, ntb     =       2, igb     =       0, nsnb    =      25
     ipol    =       0, gbsa    =       0, iesp    =       0
     dielc   =   1.00000, cut     =  12.00000, intdiel =   1.00000

Frozen or restrained atoms:
     ibelly  =       0, ntr     =       1
     restraint_wt =   0.00000

Molecular dynamics:
     nstlim  =   1250000, nscm    =         0, nrespa  =         1
     t       =   0.00000, dt      =   0.00100, vlimit  =  -1.00000

Langevin dynamics temperature regulation:
     ig      =  693541
     temp0   = 303.15000, tempi   =   0.00000, gamma_ln=   1.00000

Pressure regulation:
     ntp     =       1
     pres0   =   1.00000, comp    =  44.60000, taup    =   1.00000
     Monte-Carlo Barostat:
     mcbarint  =     100

SHAKE:
     ntc     =       2, jfastw  =       0
     tol     =   0.00001

Ewald parameters:
     verbose =       0, ew_type =       0, nbflag  =       1, use_pme =       1
     vdwmeth =       0, eedmeth =       1, netfrc  =       1
     Box X =   60.500   Box Y =   60.500   Box Z =  120.500
     Alpha =   90.000   Beta  =   90.000   Gamma =   90.000
     NFFT1 =   64       NFFT2 =   64       NFFT3 =  128
     Cutoff=   12.000   Tol   =0.100E-04
     Ewald Coefficient =  0.22664
     Interpolation order =    4

    LOADING THE CONSTRAINED ATOMS AS GROUPS

   5.  REFERENCE ATOM COORDINATES

    ----- READING GROUP     1; TITLE:
 Protein posres

     GROUP    1 HAS HARMONIC CONSTRAINTS     1.00000
 GRP    1 RES    1 TO     1
      Number of atoms in this group  =    44
    ----- END OF GROUP READ -----

--------------------------------------------------------------------------------
   3.  ATOMIC COORDINATES AND VELOCITIES
--------------------------------------------------------------------------------

 begin time read from input coords =  1250.000 ps

 Number of triangulated 3-point waters found:     6717

     Sum of charges from parm topology file =  -0.00000000
     Forcing neutrality...

--------------------------------------------------------------------------------
   4.  RESULTS
 NSTEP =     1000   TIME(PS) =    1251.000  TEMP(K) =   303.13  PRESS =     0.0
 Etot   =    -31385.8519  EKtot   =     27956.9883  EPtot      =    -59342.8402
 BOND   =      1743.9383  ANGLE   =      8082.8615  DIHED      =      5620.6572
 UB     =      2385.9411  IMP     =        -1.8373  CMAP       =         0.0000
 1-4 NB =       401.3272  1-4 EEL =     -2562.0746  VDWAALS    =     -1616.0554
 EELEC  =    -73404.3487  EHBOND  =         0.0000  RESTRAINT  =         6.7504
 EAMBER (non-restraint)  =    -59349.5906
 EKCMT  =         0.0000  VIRIAL  =         0.0000  VOLUME     =    435340.3108
                                                    Density    =         0.8806
 ------------------------------------------------------------------------------

      A V E R A G E S   O V E R    1250 S T E P S

 NSTEP =  1250000   TIME(PS) =    2500.000  TEMP(K) =   303.12  PRESS =     0.0
 Etot   =    -32001.9436  EKtot   =     27955.6810  EPtot      =    -59957.6246
 BOND   =      1680.5832  ANGLE   =      8155.9777  DIHED      =      5612.2128
 UB     =      2396.8305  IMP     =        -1.6483  CMAP       =         0.0000
 1-4 NB =       416.8731  1-4 EEL =     -2563.8160  VDWAALS    =     -1854.8504
 EELEC  =    -73805.2109  EHBOND  =         0.0000  RESTRAINT  =         5.4237
 EAMBER (non-restraint)  =    -59963.0483
 EKCMT  =         0.0000  VIRIAL  =         0.0000  VOLUME     =    423058.9359
                                                    Density    =         0.9062
 ------------------------------------------------------------------------------

      R M S  F L U C T U A T I O N S

 NSTEP =  1250000   TIME(PS) =    2500.000  TEMP(K) =     1.43  PRESS =     0.0
 Etot   =       226.6516  EKtot   =       132.2482  EPtot      =       186.5759
 BOND   =        28.9313  ANGLE   =        60.3955  DIHED      =        38.6986
 UB     =        20.1693  IMP     =         0.4680  CMAP       =         0.0000
 1-4 NB =        12.9954  1-4 EEL =        73.9044  VDWAALS    =       137.7180
 EELEC  =       206.9493  EHBOND  =         0.0000  RESTRAINT  =         1.5598
 EAMBER (non-restraint)  =       185.0161
 EKCMT  =         0.0000  VIRIAL  =         0.0000  VOLUME     =      1358.5282
                                                    Density    =         0.0029
 ------------------------------------------------------------------------------
